IEEE/34Bus/ieee34-1_Power_elem_kVA.txt

CIRCUIT ELEMENT POWER FLOW

(Power Flow into element from indicated Bus)

Power Delivery Elements

  Bus     Phase     kW     +j   kvar         kVA         PF

ELEMENT = "Vsource.SOURCE"
SOURCEBUS     1      -692.2 +j   -154.6      709.2       0.9760
SOURCEBUS     2      -622.9 +j    -72.0      627.0       0.9934
SOURCEBUS     3      -729.0 +j    -53.3      731.0       0.9973
   TERMINAL TOTAL . -2044.1 +j   -279.9     2063.1       0.9908
SOURCEBUS     0         0.0 +j      0.0        0.0       1.0000
SOURCEBUS     0         0.0 +j      0.0        0.0       1.0000
SOURCEBUS     0         0.0 +j      0.0        0.0       1.0000
   TERMINAL TOTAL .     0.0 +j      0.0        0.0       1.0000

ELEMENT = "Transformer.SUBXF"
SOURCEBUS     1       692.2 +j    154.6      709.2       0.9760
SOURCEBUS     2       622.9 +j     72.0      627.0       0.9934
SOURCEBUS     3       729.0 +j     53.3      731.0       0.9973
SOURCEBUS     0         0.0 +j      0.0        0.0       1.0000
   TERMINAL TOTAL .  2044.1 +j    279.9     2063.1       0.9908
800           1      -762.1 +j   -167.9      780.4       0.9766
800           2      -668.7 +j    -87.4      674.4       0.9916
800           3      -613.3 +j    -24.7      613.8       0.9992
800           0         0.0 +j      0.0        0.0       1.0000
   TERMINAL TOTAL . -2044.1 +j   -279.9     2063.1       0.9908

ELEMENT = "Line.L1"
800           1       762.1 +j    167.9      780.4       0.9766
800           2       668.7 +j     87.4      674.4       0.9916
800           3       613.3 +j     24.7      613.8       0.9992
   TERMINAL TOTAL .  2044.1 +j    279.9     2063.1       0.9908
802           1      -760.5 +j   -167.6      778.7       0.9766
802           2      -667.7 +j    -87.1      673.4       0.9916
802           3      -612.4 +j    -24.7      612.9       0.9992
   TERMINAL TOTAL . -2040.6 +j   -279.4     2059.6       0.9908

ELEMENT = "Line.L2"
802           1       760.5 +j    167.6      778.7       0.9766
802           2       652.7 +j     79.6      657.5       0.9926
802           3       599.9 +j     17.7      600.2       0.9996
   TERMINAL TOTAL .  2013.1 +j    264.9     2030.5       0.9915
806           1      -759.4 +j   -167.4      777.6       0.9766
806           2      -652.1 +j    -79.5      656.9       0.9926
806           3      -599.4 +j    -17.7      599.6       0.9996
   TERMINAL TOTAL . -2010.8 +j   -264.6     2028.2       0.9915

ELEMENT = "Line.L3"
806           1       759.4 +j    167.4      777.6       0.9766
806           2       637.1 +j     72.0      641.1       0.9937
806           3       586.9 +j     10.7      587.0       0.9998
   TERMINAL TOTAL .  1983.3 +j    250.1     1999.0       0.9921
808           1      -738.9 +j   -163.1      756.7       0.9765
808           2      -626.0 +j    -70.1      629.9       0.9938
808           3      -577.1 +j    -11.9      577.2       0.9998
   TERMINAL TOTAL . -1942.0 +j   -245.1     1957.4       0.9921

ELEMENT = "Line.L4"
808           2         8.2 +j      3.4        8.9       0.9247
   TERMINAL TOTAL .     8.2 +j      3.4        8.9       0.9247
810           2        -8.2 +j     -4.2        9.3       0.8892
   TERMINAL TOTAL .    -8.2 +j     -4.2        9.3       0.8892

ELEMENT = "Line.L5"
808           1       738.9 +j    163.1      756.7       0.9765
808           2       609.5 +j     62.5      612.7       0.9948
808           3       577.1 +j     11.9      577.2       0.9998
   TERMINAL TOTAL .  1925.5 +j    237.5     1940.1       0.9925
812           1      -715.0 +j   -157.3      732.1       0.9766
812           2      -597.6 +j    -60.6      600.6       0.9949
812           3      -565.5 +j    -13.0      565.7       0.9997
   TERMINAL TOTAL . -1878.1 +j   -230.9     1892.2       0.9925

ELEMENT = "Line.L6"
812           1       715.0 +j    157.3      732.1       0.9766
812           2       597.6 +j     60.6      600.6       0.9949
812           3       565.5 +j     13.0      565.7       0.9997
   TERMINAL TOTAL .  1878.1 +j    230.9     1892.2       0.9925
814           1      -695.9 +j   -152.3      712.4       0.9769
814           2      -588.1 +j    -59.0      591.1       0.9950
814           3      -556.3 +j    -13.6      556.4       0.9997
   TERMINAL TOTAL . -1840.3 +j   -224.8     1854.0       0.9926

ELEMENT = "Line.L7"
814R          1       695.8 +j    152.0      712.2       0.9770
814R          2       588.1 +j     58.8      591.0       0.9950
814R          3       556.2 +j     13.4      556.4       0.9997
   TERMINAL TOTAL .  1840.1 +j    224.2     1853.7       0.9927
850           1      -695.8 +j   -152.0      712.2       0.9770
850           2      -588.1 +j    -58.8      591.0       0.9950
850           3      -556.2 +j    -13.4      556.4       0.9997
   TERMINAL TOTAL . -1840.1 +j   -224.2     1853.7       0.9927

ELEMENT = "Line.L8"
816           1       173.8 +j     80.2      191.5       0.9079
   TERMINAL TOTAL .   173.8 +j     80.2      191.5       0.9079
818           1      -173.7 +j    -80.4      191.4       0.9075
   TERMINAL TOTAL .  -173.7 +j    -80.4      191.4       0.9075

ELEMENT = "Line.L9"
816           1       521.7 +j     71.7      526.6       0.9907
816           2       587.0 +j     58.4      589.9       0.9951
816           3       556.1 +j     13.4      556.2       0.9997
   TERMINAL TOTAL .  1664.7 +j    143.5     1670.9       0.9963
824           1      -517.4 +j    -72.5      522.5       0.9903
824           2      -581.5 +j    -58.0      584.4       0.9951
824           3      -551.7 +j    -13.2      551.8       0.9997
   TERMINAL TOTAL . -1650.6 +j   -143.7     1656.9       0.9962

ELEMENT = "Line.L10"
818           1       155.8 +j     71.5      171.4       0.9089
   TERMINAL TOTAL .   155.8 +j     71.5      171.4       0.9089
820           1      -152.3 +j    -76.7      170.5       0.8930
   TERMINAL TOTAL .  -152.3 +j    -76.7      170.5       0.8930

ELEMENT = "Line.L11"
820           1        67.7 +j     33.2       75.4       0.8979
   TERMINAL TOTAL .    67.7 +j     33.2       75.4       0.8979
822           1       -67.5 +j    -35.0       76.0       0.8878
   TERMINAL TOTAL .   -67.5 +j    -35.0       76.0       0.8878

ELEMENT = "Line.L12"
824           2        20.3 +j      9.7       22.5       0.9019
   TERMINAL TOTAL .    20.3 +j      9.7       22.5       0.9019
826           2       -20.3 +j    -10.1       22.7       0.8944
   TERMINAL TOTAL .   -20.3 +j    -10.1       22.7       0.8944

ELEMENT = "Line.L13"
824           1       517.4 +j     72.5      522.5       0.9903
824           2       540.0 +j     37.8      541.3       0.9976
824           3       549.7 +j     12.2      549.8       0.9998
   TERMINAL TOTAL .  1607.1 +j    122.5     1611.8       0.9971
828           1      -517.1 +j    -72.6      522.2       0.9903
828           2      -539.6 +j    -37.8      541.0       0.9976
828           3      -549.3 +j    -12.2      549.4       0.9998
   TERMINAL TOTAL . -1606.0 +j   -122.6     1610.7       0.9971

ELEMENT = "Line.L14"
828           1       513.6 +j     71.1      518.5       0.9906
828           2       539.6 +j     37.8      541.0       0.9976
828           3       547.3 +j     11.2      547.4       0.9998
   TERMINAL TOTAL .  1600.5 +j    120.1     1605.0       0.9972
830           1      -505.2 +j    -72.4      510.4       0.9899
830           2      -530.4 +j    -37.8      531.7       0.9975
830           3      -538.4 +j    -10.8      538.5       0.9998
   TERMINAL TOTAL . -1574.0 +j   -121.0     1578.6       0.9971

ELEMENT = "Line.L15"
830           1       485.7 +j     59.1      489.3       0.9927
830           2       520.4 +j     32.8      521.4       0.9980
830           3       519.7 +j      7.7      519.7       0.9999
   TERMINAL TOTAL .  1525.8 +j     99.6     1529.0       0.9979
854           1      -485.5 +j    -59.1      489.1       0.9927
854           2      -520.2 +j    -32.8      521.2       0.9980
854           3      -519.5 +j     -7.7      519.5       0.9999
   TERMINAL TOTAL . -1525.2 +j    -99.6     1528.4       0.9979

ELEMENT = "Line.L16"
832           1       316.0 +j    -23.7      316.9      -0.9972
832           2       344.9 +j    -49.5      348.4      -0.9899
832           3       351.4 +j    -76.1      359.5      -0.9774
   TERMINAL TOTAL .  1012.3 +j   -149.2     1023.2      -0.9893
858           1      -315.4 +j     22.8      316.2      -0.9974
858           2      -343.9 +j     48.8      347.4      -0.9901
858           3      -350.5 +j     75.5      358.6      -0.9776
   TERMINAL TOTAL . -1009.8 +j    147.2     1020.5      -0.9895

ELEMENT = "Line.L17"
834           1       102.0 +j     75.5      126.9       0.8035
834           2       106.6 +j     64.7      124.7       0.8548
834           3       109.3 +j     42.1      117.2       0.9333
   TERMINAL TOTAL .   317.9 +j    182.3      366.5       0.8675
860           1      -101.9 +j    -76.0      127.1       0.8018
860           2      -106.5 +j    -65.1      124.9       0.8531
860           3      -109.3 +j    -42.4      117.3       0.9323
   TERMINAL TOTAL .  -317.8 +j   -183.6      367.0       0.8659

ELEMENT = "Line.L18"
834           1       175.8 +j   -137.5      223.2      -0.7875
834           2       214.5 +j   -119.0      245.3      -0.8745
834           3       183.9 +j   -128.7      224.5      -0.8194
   TERMINAL TOTAL .   574.2 +j   -385.2      691.4      -0.8304
842           1      -175.7 +j    137.5      223.1      -0.7876
842           2      -214.4 +j    118.9      245.2      -0.8745
842           3      -183.9 +j    128.6      224.4      -0.8195
   TERMINAL TOTAL .  -574.1 +j    385.0      691.3      -0.8305

ELEMENT = "Line.L19"
836           1        15.4 +j      6.8       16.8       0.9148
836           2        20.1 +j     11.6       23.2       0.8653
836           3        13.3 +j     13.2       18.7       0.7094
   TERMINAL TOTAL .    48.8 +j     31.7       58.2       0.8390
840           1       -15.4 +j     -7.0       16.9       0.9107
840           2       -20.1 +j    -11.8       23.3       0.8617
840           3       -13.3 +j    -13.4       18.8       0.7053
   TERMINAL TOTAL .   -48.8 +j    -32.2       58.5       0.8348

ELEMENT = "Line.L20"
836           1        -0.0 +j     -0.1        0.1       0.0653
836           2        28.0 +j     13.2       31.0       0.9046
836           3        -0.0 +j     -0.1        0.1       0.0560
   TERMINAL TOTAL .    28.0 +j     13.1       30.9       0.9060
862           1         0.0 +j      0.0        0.0       0.8557
862           2       -28.0 +j    -13.3       31.0       0.9039
862           3         0.0 +j      0.0        0.0       0.9985
   TERMINAL TOTAL .   -28.0 +j    -13.3       31.0       0.9039

ELEMENT = "Line.L21"
842           1       171.2 +j   -140.0      221.2      -0.7742
842           2       214.4 +j   -118.9      245.2      -0.8745
842           3       183.9 +j   -128.6      224.4      -0.8195
   TERMINAL TOTAL .   569.6 +j   -387.5      688.9      -0.8268
844           1      -171.2 +j    139.7      221.0      -0.7747
844           2      -214.3 +j    118.7      245.0      -0.8748
844           3      -183.8 +j    128.4      224.3      -0.8198
   TERMINAL TOTAL .  -569.3 +j    386.8      688.3      -0.8271

ELEMENT = "Line.L22"
844           1        20.0 +j   -147.7      149.0      -0.1340
844           2        55.9 +j   -130.1      141.6      -0.3948
844           3        30.0 +j   -139.3      142.4      -0.2106
   TERMINAL TOTAL .   105.9 +j   -417.0      430.2      -0.2461
846           1       -19.9 +j    146.9      148.2      -0.1344
846           2       -55.7 +j    129.4      140.8      -0.3955
846           3       -29.9 +j    138.6      141.8      -0.2111
   TERMINAL TOTAL .  -105.5 +j    414.9      428.1      -0.2466

ELEMENT = "Line.L23"
846           1        19.9 +j   -146.9      148.2      -0.1344
846           2        31.7 +j   -140.9      144.4      -0.2195
846           3        19.9 +j   -144.1      145.5      -0.1370
   TERMINAL TOTAL .    71.5 +j   -431.9      437.7      -0.1634
848           1       -19.9 +j    146.8      148.1      -0.1344
848           2       -31.7 +j    140.8      144.3      -0.2195
848           3       -19.9 +j    144.0      145.4      -0.1370
   TERMINAL TOTAL .   -71.5 +j    431.5      437.4      -0.1634

ELEMENT = "Line.L24"
850           1       695.8 +j    152.0      712.2       0.9770
850           2       588.1 +j     58.8      591.0       0.9950
850           3       556.2 +j     13.4      556.4       0.9997
   TERMINAL TOTAL .  1840.1 +j    224.2     1853.7       0.9927
816           1      -695.5 +j   -152.0      711.9       0.9770
816           2      -587.9 +j    -58.7      590.8       0.9950
816           3      -556.1 +j    -13.4      556.2       0.9997
   TERMINAL TOTAL . -1839.5 +j   -224.1     1853.1       0.9927

ELEMENT = "Line.L25"
852R          1       471.6 +j     61.5      475.6       0.9916
852R          2       500.3 +j     33.9      501.4       0.9977
852R          3       504.4 +j      6.9      504.5       0.9999
   TERMINAL TOTAL .  1476.3 +j    102.3     1479.9       0.9976
832           1      -471.6 +j    -61.5      475.6       0.9916
832           2      -500.3 +j    -33.9      501.4       0.9977
832           3      -504.4 +j     -6.9      504.5       0.9999
   TERMINAL TOTAL . -1476.3 +j   -102.3     1479.9       0.9976

ELEMENT = "Transformer.XFM1"
832           1       154.3 +j     84.6      176.0       0.8769
832           2       155.0 +j     83.2      175.9       0.8810
832           3       152.0 +j     82.4      172.9       0.8791
832           0         0.0 +j      0.0        0.0       1.0000
   TERMINAL TOTAL .   461.3 +j    250.2      524.8       0.8790
888           1      -151.1 +j    -77.7      169.9       0.8893
888           2      -151.8 +j    -76.3      169.8       0.8935
888           3      -148.8 +j    -75.6      166.9       0.8915
888           0         0.0 +j      0.0        0.0       1.0000
   TERMINAL TOTAL .  -451.7 +j   -229.6      506.7       0.8915

ELEMENT = "Line.L26"
854           2         2.0 +j     -2.2        3.0      -0.6741
   TERMINAL TOTAL .     2.0 +j     -2.2        3.0      -0.6741
856           2        -2.0 +j     -1.0        2.2       0.8944
   TERMINAL TOTAL .    -2.0 +j     -1.0        2.2       0.8944

ELEMENT = "Line.L27"
854           1       485.5 +j     59.1      489.1       0.9927
854           2       516.2 +j     34.0      517.3       0.9978
854           3       519.5 +j      7.7      519.5       0.9999
   TERMINAL TOTAL .  1521.2 +j    100.8     1524.5       0.9978
852           1      -471.7 +j    -61.6      475.7       0.9916
852           2      -500.3 +j    -34.1      501.5       0.9977
852           3      -504.5 +j     -7.1      504.5       0.9999
   TERMINAL TOTAL . -1476.5 +j   -102.7     1480.1       0.9976

ELEMENT = "Line.L28"
858           1         1.0 +j      0.3        1.0       0.9688
   TERMINAL TOTAL .     1.0 +j      0.3        1.0       0.9688
864           1        -1.0 +j     -0.5        1.1       0.8944
   TERMINAL TOTAL .    -1.0 +j     -0.5        1.1       0.8944

ELEMENT = "Line.L29"
858           1       308.6 +j    -27.7      309.8      -0.9960
858           2       337.9 +j    -49.9      341.6      -0.9893
858           3       342.6 +j    -80.1      351.9      -0.9738
   TERMINAL TOTAL .   989.1 +j   -157.7     1001.6      -0.9875
834           1      -307.8 +j     26.7      309.0      -0.9963
834           2      -336.8 +j     49.1      340.4      -0.9895
834           3      -341.7 +j     79.5      350.8      -0.9740
   TERMINAL TOTAL .  -986.3 +j    155.2      998.5      -0.9878

ELEMENT = "Line.L30"
860           1        38.4 +j     17.1       42.0       0.9138
860           2        67.7 +j     36.9       77.1       0.8782
860           3        32.5 +j     21.0       38.7       0.8398
   TERMINAL TOTAL .   138.6 +j     75.0      157.6       0.8796
836           1       -38.4 +j    -17.7       42.3       0.9086
836           2       -67.6 +j    -37.4       77.3       0.8749
836           3       -32.6 +j    -21.5       39.0       0.8340
   TERMINAL TOTAL .  -138.6 +j    -76.6      158.4       0.8752

ELEMENT = "Line.L31"
862           2        14.0 +j      6.3       15.3       0.9131
   TERMINAL TOTAL .    14.0 +j      6.3       15.3       0.9131
838           2       -14.0 +j     -7.0       15.7       0.8944
   TERMINAL TOTAL .   -14.0 +j     -7.0       15.7       0.8944

ELEMENT = "Line.L32"
888           1       151.1 +j     77.7      169.9       0.8893
888           2       151.8 +j     76.3      169.8       0.8935
888           3       148.8 +j     75.6      166.9       0.8915
   TERMINAL TOTAL .   451.7 +j    229.6      506.7       0.8915
890           1      -139.6 +j    -71.3      156.7       0.8906
890           2      -141.6 +j    -69.4      157.7       0.8979
890           3      -137.7 +j    -68.8      154.0       0.8947
   TERMINAL TOTAL .  -418.9 +j   -209.5      468.4       0.8944

ELEMENT = "Capacitor.C844"
844           1         0.0 +j   -108.7      108.7       1.0000
844           2         0.0 +j   -108.1      108.1       1.0000
844           3         0.0 +j   -106.5      106.5       1.0000
   TERMINAL TOTAL .     0.0 +j   -323.3      323.3       1.0000
844           0         0.0 +j      0.0        0.0       1.0000
844           0         0.0 +j      0.0        0.0       1.0000
844           0         0.0 +j      0.0        0.0       1.0000
   TERMINAL TOTAL .     0.0 +j      0.0        0.0       1.0000

ELEMENT = "Capacitor.C848"
848           1         0.0 +j   -163.1      163.1       1.0000
848           2         0.0 +j   -162.1      162.1       1.0000
848           3         0.0 +j   -159.9      159.9       1.0000
   TERMINAL TOTAL .     0.0 +j   -485.0      485.0       1.0000
848           0         0.0 +j      0.0        0.0       1.0000
848           0         0.0 +j      0.0        0.0       1.0000
848           0         0.0 +j      0.0        0.0       1.0000
   TERMINAL TOTAL .     0.0 +j      0.0        0.0       1.0000

ELEMENT = "Transformer.REG1A"
814           1       695.9 +j    152.3      712.4       0.9769
814           0         0.0 +j      0.0        0.0       1.0000
   TERMINAL TOTAL .   695.9 +j    152.3      712.4       0.9769
814R          1      -695.8 +j   -152.0      712.2       0.9770
814R          0         0.0 +j      0.0        0.0       1.0000
   TERMINAL TOTAL .  -695.8 +j   -152.0      712.2       0.9770

ELEMENT = "Transformer.REG1B"
814           2       588.1 +j     59.0      591.1       0.9950
814           0         0.0 +j      0.0        0.0       1.0000
   TERMINAL TOTAL .   588.1 +j     59.0      591.1       0.9950
814R          2      -588.1 +j    -58.8      591.0       0.9950
814R          0         0.0 +j      0.0        0.0       1.0000
   TERMINAL TOTAL .  -588.1 +j    -58.8      591.0       0.9950

ELEMENT = "Transformer.REG1C"
814           3       556.3 +j     13.6      556.4       0.9997
814           0         0.0 +j      0.0        0.0       1.0000
   TERMINAL TOTAL .   556.3 +j     13.6      556.4       0.9997
814R          3      -556.2 +j    -13.4      556.4       0.9997
814R          0         0.0 +j      0.0        0.0       1.0000
   TERMINAL TOTAL .  -556.2 +j    -13.4      556.4       0.9997

ELEMENT = "Transformer.REG2A"
852           1       471.7 +j     61.6      475.7       0.9916
852           0         0.0 +j      0.0        0.0       1.0000
   TERMINAL TOTAL .   471.7 +j     61.6      475.7       0.9916
852R          1      -471.6 +j    -61.5      475.6       0.9916
852R          0         0.0 +j      0.0        0.0       1.0000
   TERMINAL TOTAL .  -471.6 +j    -61.5      475.6       0.9916

ELEMENT = "Transformer.REG2B"
852           2       500.3 +j     34.1      501.5       0.9977
852           0         0.0 +j      0.0        0.0       1.0000
   TERMINAL TOTAL .   500.3 +j     34.1      501.5       0.9977
852R          2      -500.3 +j    -33.9      501.4       0.9977
852R          0         0.0 +j      0.0        0.0       1.0000
   TERMINAL TOTAL .  -500.3 +j    -33.9      501.4       0.9977

ELEMENT = "Transformer.REG2C"
852           3       504.5 +j      7.1      504.5       0.9999
852           0         0.0 +j      0.0        0.0       1.0000
   TERMINAL TOTAL .   504.5 +j      7.1      504.5       0.9999
852R          3      -504.4 +j     -6.9      504.5       0.9999
852R          0         0.0 +j      0.0        0.0       1.0000
   TERMINAL TOTAL .  -504.4 +j     -6.9      504.5       0.9999

= = = = = = = = = = = = = = = = = = =  = = = = = = = = = = =  = =

Power Conversion Elements

  Bus     Phase     kW   +j  kvar         kVA         PF

ELEMENT = "Load.S860"
860           1      20.0 +j   16.0       25.6       0.7809
860           2      20.0 +j   16.0       25.6       0.7809
860           3      20.0 +j   16.0       25.6       0.7809
860           0       0.0 +j    0.0        0.0       1.0000
  TERMINAL TOTAL  .    60.0 +j     48.0       76.8       0.7809

ELEMENT = "Load.S840"
840           1       9.4 +j    7.3       11.9       0.7893
840           2       9.4 +j    7.3       11.8       0.7894
840           3       9.3 +j    7.2       11.8       0.7894
840           0       0.0 +j    0.0        0.0       1.0000
  TERMINAL TOTAL  .    28.0 +j     21.8       35.5       0.7894

ELEMENT = "Load.S844"
844           1     146.7 +j  114.1      185.8       0.7893
844           2     145.9 +j  113.5      184.8       0.7894
844           3     143.8 +j  111.9      182.2       0.7894
844           0       0.0 +j    0.0        0.0       1.0000
  TERMINAL TOTAL  .   436.4 +j    339.4      552.9       0.7894

ELEMENT = "Load.S848"
848           1      19.9 +j   16.3       25.7       0.7740
848           2      20.2 +j   15.8       25.6       0.7864
848           3      19.9 +j   15.9       25.5       0.7822
  TERMINAL TOTAL  .    60.0 +j     48.0       76.8       0.7809

ELEMENT = "Load.S830A"
830           1       6.5 +j   -0.3        6.5      -0.9986
830           2       3.6 +j    5.4        6.4       0.5560
  TERMINAL TOTAL  .    10.0 +j      5.0       11.2       0.8944

ELEMENT = "Load.S830B"
830           2       6.4 +j   -0.4        6.4      -0.9979
830           3       3.5 +j    5.3        6.4       0.5466
  TERMINAL TOTAL  .     9.9 +j      4.9       11.0       0.8944

ELEMENT = "Load.S830C"
830           3      15.2 +j   -2.3       15.4      -0.9893
830           1       9.6 +j   12.2       15.5       0.6177
  TERMINAL TOTAL  .    24.8 +j      9.9       26.7       0.9285

ELEMENT = "Load.S890"
890           1     139.6 +j   71.3      156.7       0.8906
890           2     141.6 +j   69.4      157.7       0.8979
890           3     137.8 +j   68.8      154.0       0.8947
  TERMINAL TOTAL  .   419.0 +j    209.5      468.4       0.8944

ELEMENT = "Load.D802_806SB"
802           2      15.0 +j    7.5       16.8       0.8944
802           0       0.0 +j    0.0        0.0       1.0000
  TERMINAL TOTAL  .    15.0 +j      7.5       16.8       0.8944

ELEMENT = "Load.D802_806RB"
806           2      15.0 +j    7.5       16.8       0.8944
806           0       0.0 +j    0.0        0.0       1.0000
  TERMINAL TOTAL  .    15.0 +j      7.5       16.8       0.8944

ELEMENT = "Load.D802_806SC"
802           3      12.5 +j    7.0       14.3       0.8725
802           0       0.0 +j    0.0        0.0       1.0000
  TERMINAL TOTAL  .    12.5 +j      7.0       14.3       0.8725

ELEMENT = "Load.D802_806RC"
806           3      12.5 +j    7.0       14.3       0.8725
806           0       0.0 +j    0.0        0.0       1.0000
  TERMINAL TOTAL  .    12.5 +j      7.0       14.3       0.8725

ELEMENT = "Load.D808_810SB"
808           2       8.2 +j    4.2        9.3       0.8892
808           0       0.0 +j    0.0        0.0       1.0000
  TERMINAL TOTAL  .     8.2 +j      4.2        9.3       0.8892

ELEMENT = "Load.D808_810RB"
810           2       8.2 +j    4.2        9.3       0.8892
810           0       0.0 +j    0.0        0.0       1.0000
  TERMINAL TOTAL  .     8.2 +j      4.2        9.3       0.8892

ELEMENT = "Load.D818_820SA"
818           1      17.9 +j    8.9       20.0       0.8944
818           0       0.0 +j    0.0        0.0       1.0000
  TERMINAL TOTAL  .    17.9 +j      8.9       20.0       0.8944

ELEMENT = "Load.D818_820RA"
820           1      17.1 +j    8.6       19.1       0.8944
820           0       0.0 +j    0.0        0.0       1.0000
  TERMINAL TOTAL  .    17.1 +j      8.6       19.1       0.8944

ELEMENT = "Load.D820_822SA"
820           1      67.5 +j   35.0       76.0       0.8878
820           0       0.0 +j    0.0        0.0       1.0000
  TERMINAL TOTAL  .    67.5 +j     35.0       76.0       0.8878

ELEMENT = "Load.D820_822RA"
822           1      67.5 +j   35.0       76.0       0.8878
822           0       0.0 +j    0.0        0.0       1.0000
  TERMINAL TOTAL  .    67.5 +j     35.0       76.0       0.8878

ELEMENT = "Load.D816_824SB"
816           2       0.9 +j    0.4        1.0       0.9285
816           0       0.0 +j    0.0        0.0       1.0000
  TERMINAL TOTAL  .     0.9 +j      0.4        1.0       0.9285

ELEMENT = "Load.D816_824RB"
824           2       0.9 +j    0.4        1.0       0.9285
824           0       0.0 +j    0.0        0.0       1.0000
  TERMINAL TOTAL  .     0.9 +j      0.4        1.0       0.9285

ELEMENT = "Load.D824_826SB"
824           2      20.3 +j   10.1       22.7       0.8944
824           0       0.0 +j    0.0        0.0       1.0000
  TERMINAL TOTAL  .    20.3 +j     10.1       22.7       0.8944

ELEMENT = "Load.D824_826RB"
826           2      20.3 +j   10.1       22.7       0.8944
826           0       0.0 +j    0.0        0.0       1.0000
  TERMINAL TOTAL  .    20.3 +j     10.1       22.7       0.8944

ELEMENT = "Load.D824_828SC"
824           3       2.0 +j    1.0        2.2       0.8944
824           0       0.0 +j    0.0        0.0       1.0000
  TERMINAL TOTAL  .     2.0 +j      1.0        2.2       0.8944

ELEMENT = "Load.D824_828RC"
828           3       2.0 +j    1.0        2.2       0.8944
828           0       0.0 +j    0.0        0.0       1.0000
  TERMINAL TOTAL  .     2.0 +j      1.0        2.2       0.8944

ELEMENT = "Load.D828_830SA"
828           1       3.5 +j    1.5        3.8       0.9191
828           0       0.0 +j    0.0        0.0       1.0000
  TERMINAL TOTAL  .     3.5 +j      1.5        3.8       0.9191

ELEMENT = "Load.D828_830RA"
830           1       3.5 +j    1.5        3.8       0.9191
830           0       0.0 +j    0.0        0.0       1.0000
  TERMINAL TOTAL  .     3.5 +j      1.5        3.8       0.9191

ELEMENT = "Load.D854_856SB"
854           2       2.0 +j    1.0        2.2       0.8944
854           0       0.0 +j    0.0        0.0       1.0000
  TERMINAL TOTAL  .     2.0 +j      1.0        2.2       0.8944

ELEMENT = "Load.D854_856RB"
856           2       2.0 +j    1.0        2.2       0.8944
856           0       0.0 +j    0.0        0.0       1.0000
  TERMINAL TOTAL  .     2.0 +j      1.0        2.2       0.8944

ELEMENT = "Load.D832_858SA"
832           1       1.3 +j    0.5        1.4       0.9191
832           0       0.0 +j    0.0        0.0       1.0000
  TERMINAL TOTAL  .     1.3 +j      0.5        1.4       0.9191

ELEMENT = "Load.D832_858RA"
858           1       1.3 +j    0.5        1.4       0.9191
858           0       0.0 +j    0.0        0.0       1.0000
  TERMINAL TOTAL  .     1.3 +j      0.5        1.4       0.9191

ELEMENT = "Load.D832_858SB"
832           2       0.4 +j    0.2        0.4       0.8944
832           0       0.0 +j    0.0        0.0       1.0000
  TERMINAL TOTAL  .     0.4 +j      0.2        0.4       0.8944

ELEMENT = "Load.D832_858RB"
858           2       0.4 +j    0.2        0.4       0.8944
858           0       0.0 +j    0.0        0.0       1.0000
  TERMINAL TOTAL  .     0.4 +j      0.2        0.4       0.8944

ELEMENT = "Load.D832_858SC"
832           3       1.1 +j    0.5        1.2       0.8944
832           0       0.0 +j    0.0        0.0       1.0000
  TERMINAL TOTAL  .     1.1 +j      0.5        1.2       0.8944

ELEMENT = "Load.D832_858RC"
858           3       1.1 +j    0.5        1.2       0.8944
858           0       0.0 +j    0.0        0.0       1.0000
  TERMINAL TOTAL  .     1.1 +j      0.5        1.2       0.8944

ELEMENT = "Load.D858_864SB"
858           1       1.0 +j    0.5        1.1       0.8944
858           0       0.0 +j    0.0        0.0       1.0000
  TERMINAL TOTAL  .     1.0 +j      0.5        1.1       0.8944

ELEMENT = "Load.D858_864RB"
864           1       1.0 +j    0.5        1.1       0.8944
864           0       0.0 +j    0.0        0.0       1.0000
  TERMINAL TOTAL  .     1.0 +j      0.5        1.1       0.8944

ELEMENT = "Load.D858_834SA"
858           1       1.3 +j   -0.1        1.3      -0.9988
858           2       0.7 +j    1.1        1.3       0.5584
  TERMINAL TOTAL  .     2.0 +j      1.0        2.2       0.8944

ELEMENT = "Load.D858_834RA"
834           1       1.3 +j   -0.1        1.3      -0.9988
834           2       0.7 +j    1.1        1.3       0.5587
  TERMINAL TOTAL  .     2.0 +j      1.0        2.2       0.8944

ELEMENT = "Load.D858_834SB"
858           2       4.9 +j   -0.2        4.9      -0.9994
858           3       2.6 +j    4.2        4.9       0.5239
  TERMINAL TOTAL  .     7.5 +j      4.0        8.5       0.8824

ELEMENT = "Load.D858_834RB"
834           2       4.9 +j   -0.2        4.9      -0.9994
834           3       2.6 +j    4.2        4.9       0.5241
  TERMINAL TOTAL  .     7.5 +j      4.0        8.5       0.8824

ELEMENT = "Load.D858_834SC"
858           3       4.3 +j   -0.2        4.3      -0.9993
858           1       2.2 +j    3.7        4.3       0.5228
  TERMINAL TOTAL  .     6.5 +j      3.5        7.4       0.8805

ELEMENT = "Load.D858_834RC"
834           3       4.3 +j   -0.2        4.3      -0.9992
834           1       2.2 +j    3.7        4.3       0.5224
  TERMINAL TOTAL  .     6.5 +j      3.5        7.4       0.8805

ELEMENT = "Load.D834_860SA"
834           1       5.6 +j   -0.3        5.6      -0.9988
834           2       3.1 +j    4.7        5.6       0.5587
  TERMINAL TOTAL  .     8.8 +j      4.4        9.8       0.8944

ELEMENT = "Load.D834_860RA"
860           1       5.6 +j   -0.3        5.6      -0.9988
860           2       3.1 +j    4.7        5.6       0.5587
  TERMINAL TOTAL  .     8.8 +j      4.4        9.8       0.8944

ELEMENT = "Load.D834_860SB"
834           2       6.9 +j   -0.4        6.9      -0.9981
834           3       3.8 +j    5.8        6.9       0.5463
  TERMINAL TOTAL  .    10.7 +j      5.3       12.0       0.8944

ELEMENT = "Load.D834_860RB"
860           2       6.9 +j   -0.4        6.9      -0.9981
860           3       3.8 +j    5.8        6.9       0.5464
  TERMINAL TOTAL  .    10.7 +j      5.3       11.9       0.8944

ELEMENT = "Load.D834_860SC"
834           3      37.8 +j   -2.6       37.9      -0.9976
834           1      21.0 +j   32.0       38.3       0.5480
  TERMINAL TOTAL  .    58.8 +j     29.4       65.7       0.8944

ELEMENT = "Load.D834_860RC"
860           3      37.8 +j   -2.6       37.9      -0.9976
860           1      20.9 +j   32.0       38.2       0.5479
  TERMINAL TOTAL  .    58.7 +j     29.4       65.6       0.8944

ELEMENT = "Load.D860_836SA"
860           1       9.6 +j   -0.5        9.6      -0.9988
860           2       5.4 +j    8.0        9.6       0.5587
  TERMINAL TOTAL  .    15.0 +j      7.5       16.8       0.8944

ELEMENT = "Load.D860_836RA"
836           1       9.6 +j   -0.5        9.6      -0.9988
836           2       5.4 +j    8.0        9.6       0.5587
  TERMINAL TOTAL  .    15.0 +j      7.5       16.8       0.8944

ELEMENT = "Load.D860_836SB"
860           2       3.4 +j    0.1        3.4       0.9999
860           3       1.6 +j    2.9        3.4       0.4805
  TERMINAL TOTAL  .     5.0 +j      3.0        5.8       0.8575

ELEMENT = "Load.D860_836RB"
836           2       3.4 +j    0.1        3.4       0.9999
836           3       1.6 +j    2.9        3.4       0.4806
  TERMINAL TOTAL  .     5.0 +j      3.0        5.8       0.8575

ELEMENT = "Load.D860_836SC"
860           3      13.7 +j   -0.7       13.7      -0.9987
860           1       7.3 +j   11.7       13.8       0.5320
  TERMINAL TOTAL  .    21.0 +j     11.0       23.7       0.8858

ELEMENT = "Load.D860_836RC"
836           3      13.7 +j   -0.7       13.7      -0.9987
836           1       7.3 +j   11.7       13.8       0.5320
  TERMINAL TOTAL  .    21.0 +j     11.0       23.7       0.8858

ELEMENT = "Load.D836_840SA"
836           1       6.0 +j   -0.3        6.1      -0.9988
836           2       3.4 +j    5.0        6.0       0.5587
  TERMINAL TOTAL  .     9.4 +j      4.7       10.5       0.8944

ELEMENT = "Load.D836_840RA"
840           1       6.0 +j   -0.3        6.1      -0.9988
840           2       3.4 +j    5.0        6.0       0.5587
  TERMINAL TOTAL  .     9.4 +j      4.7       10.5       0.8944

ELEMENT = "Load.D836_840SB"
836           2       7.4 +j   -0.5        7.4      -0.9981
836           3       4.0 +j    6.1        7.3       0.5464
  TERMINAL TOTAL  .    11.4 +j      5.7       12.7       0.8944

ELEMENT = "Load.D836_840RB"
840           2       7.4 +j   -0.5        7.4      -0.9981
840           3       4.0 +j    6.1        7.3       0.5464
  TERMINAL TOTAL  .    11.4 +j      5.7       12.7       0.8944

ELEMENT = "Load.D862_838SB"
862           2      14.0 +j    7.0       15.7       0.8944
862           0       0.0 +j    0.0        0.0       1.0000
  TERMINAL TOTAL  .    14.0 +j      7.0       15.7       0.8944

ELEMENT = "Load.D862_838RB"
838           2      14.0 +j    7.0       15.7       0.8944
838           0       0.0 +j    0.0        0.0       1.0000
  TERMINAL TOTAL  .    14.0 +j      7.0       15.7       0.8944

ELEMENT = "Load.D842_844SA"
842           1       4.5 +j    2.5        5.1       0.8742
842           0       0.0 +j    0.0        0.0       1.0000
  TERMINAL TOTAL  .     4.5 +j      2.5        5.1       0.8742

ELEMENT = "Load.D842_844RA"
844           1       4.5 +j    2.5        5.1       0.8742
844           0       0.0 +j    0.0        0.0       1.0000
  TERMINAL TOTAL  .     4.5 +j      2.5        5.1       0.8742

ELEMENT = "Load.D844_846SB"
844           2      12.5 +j    6.0       13.9       0.9015
844           0       0.0 +j    0.0        0.0       1.0000
  TERMINAL TOTAL  .    12.5 +j      6.0       13.9       0.9015

ELEMENT = "Load.D844_846RB"
846           2      12.5 +j    6.0       13.9       0.9015
846           0       0.0 +j    0.0        0.0       1.0000
  TERMINAL TOTAL  .    12.5 +j      6.0       13.9       0.9015

ELEMENT = "Load.D844_846SC"
844           3      10.0 +j    5.5       11.4       0.8762
844           0       0.0 +j    0.0        0.0       1.0000
  TERMINAL TOTAL  .    10.0 +j      5.5       11.4       0.8762

ELEMENT = "Load.D844_846RC"
846           3      10.0 +j    5.5       11.4       0.8762
846           0       0.0 +j    0.0        0.0       1.0000
  TERMINAL TOTAL  .    10.0 +j      5.5       11.4       0.8762

ELEMENT = "Load.D846_848SB"
846           2      11.5 +j    5.5       12.7       0.9021
846           0       0.0 +j    0.0        0.0       1.0000
  TERMINAL TOTAL  .    11.5 +j      5.5       12.7       0.9021

ELEMENT = "Load.D846_848RB"
848           2      11.5 +j    5.5       12.7       0.9021
848           0       0.0 +j    0.0        0.0       1.0000
  TERMINAL TOTAL  .    11.5 +j      5.5       12.7       0.9021


Total Circuit Losses =  272.7 +j   33.1
